LTspice 24.1.10 for Windows
Circuit: C:\Users\kesav\Documents\LTspice\RC_Circuit.net
Start Time: Sat Oct  4 19:21:37 2025
solver = Normal
Maximum thread count: 12
tnom = 27
temp = 27
method = trap
.OP point found by inspection.
Total elapsed time: 0.211 seconds.

Files loaded:
C:\Users\kesav\Documents\LTspice\RC_Circuit.net

